/*--------------------------------*- C++ -*----------------------------------*\
  =========                 |
  \\      /  F ield         | OpenFOAM: The Open Source CFD Toolbox
   \\    /   O peration     | Website:  https://openfoam.org
    \\  /    A nd           | Version:  10
     \\/     M anipulation  |
\*---------------------------------------------------------------------------*/
FoamFile
{
    version     2.0;
    format      ascii;
    class       dictionary;
    object      transportProperties;
}

// * * * * * * * * * * * * * * * * * * * * * * * * * * * * * * * * * * * * * //

solid
{
    kappa   (4.957  0.01571   0.0);
    Cp      (770.4    0.0       0.0);
}

powder
{
    kappa   (0.4957  0.001571   0.0);
    Cp      (317.53   0.0       0.0);
}

rho     [1 -3 0 0 0 0 0]    7955.0;

// ************************************************************************* //
