/*--------------------------------*- C++ -*----------------------------------*\
  =========                 |
  \\      /  F ield         | OpenFOAM: The Open Source CFD Toolbox
   \\    /   O peration     | Website:  https://openfoam.org
    \\  /    A nd           | Version:  10
     \\/     M anipulation  |
\*---------------------------------------------------------------------------*/
FoamFile
{
    version     2.0;
    format      ascii;
    class       dictionary;
    object      transportProperties;
}

// * * * * * * * * * * * * * * * * * * * * * * * * * * * * * * * * * * * * * //

solid
{
    kappa   (8.275  0.01472   0.0);
    Cp      (579.28 0.0       0.0);
}

powder
{
    kappa   (0.21767  0.00102   0.0);
    Cp      (317.53   0.0       0.0);
}

rho     [1 -3 0 0 0 0 0]    7569.92;

// ************************************************************************* //
