/*--------------------------------*- C++ -*----------------------------------*\
  =========                 |
  \\      /  F ield         | OpenFOAM: The Open Source CFD Toolbox
   \\    /   O peration     | Website:  https://openfoam.org
    \\  /    A nd           | Version:  10
     \\/     M anipulation  |
\*---------------------------------------------------------------------------*/
FoamFile
{
    version         2;
    format          ascii;
    class           dictionary;
    location        "system";
    object          controlDict;
}
// * * * * * * * * * * * * * * * * * * * * * * * * * * * * * * * * * * * * * //

application     additiveFoam;

startFrom       startTime;

startTime       0;

stopAt          endTime;

endTime         0.009;

deltaT          1e-07;

writeControl    adjustableRunTime;

writeInterval   0.001;

purgeWrite      0;

writeFormat     binary;

writePrecision  8;

writeCompression off;

timeFormat      general;

timePrecision   8;

runTimeModifiable yes;

adjustTimeStep  yes;

maxCo           1e+10;

maxDi           100;

maxAlphaCo      1e+10;

maxDeltaT       1e-05;

functions
{
}


// ************************************************************************* //
